# ------------------------------------------------------------------------------------------
# Impression du contenu du fichier de commandes à exécuter :
# ------------------------------------------------------------------------------------------
DEBUT();

MA=DEFI_MATERIAU(ELAS=_F(E=2.1e+11,
                         NU=0.3,),);


MAIL=LIRE_MAILLAGE(FORMAT='MED',);

MAIL=MODI_MAILLAGE(reuse=MAIL,
                   MAILLAGE=MAIL,
                   ORIE_PEAU_3D=_F(GROUP_MA=('group16',),),
                   );

MODE=AFFE_MODELE(MAILLAGE=MAIL,
                 AFFE=_F(TOUT='OUI',
                         PHENOMENE='MECANIQUE',
                         MODELISATION='3D',),);

MATE=AFFE_MATERIAU(MAILLAGE=MAIL,
                   AFFE=_F(TOUT='OUI',
                           MATER=MA,),);

CHAR=AFFE_CHAR_MECA(MODELE=MODE,
                    DDL_IMPO=(
                        _F(GROUP_MA='group16',
                           DX=0.0,
                           DY=0.0,
                           DZ=0.0,),
                        ),
		    FORCE_FACE=_F ( GROUP_MA='group255' , FY = 1200000000 , )
                    );

RESU=MECA_STATIQUE(MODELE=MODE,
                   CHAM_MATER=MATE,
                   EXCIT=_F(CHARGE=CHAR,),);

RESU=CALC_CHAMP(reuse=RESU,
               RESULTAT=RESU,
               CONTRAINTE=('SIGM_ELNO','SIGM_NOEU'),
               CRITERES=('SIEQ_ELNO','SIEQ_NOEU',),);

IMPR_RESU(FORMAT='MED',
          UNITE=80,
          RESU=_F(RESULTAT=RESU,
                  NOM_CHAM=('SIGM_NOEU','SIEQ_NOEU','DEPL',),),);

FIN();

# ------------------------------------------------------------------------------------------

  Ouverture en écriture du fichier ./vola.1
                                                                                
                                                                                
              -- CODE_ASTER -- VERSION : EXPLOITATION (stable) --               
                                                                                
                     Version 12.6.0 modifiée le 16/06/2016                      
                     révision 77d3379d51e8 - branche 'v12'                      
                         Copyright EDF R&D 1991 - 2017                          
                                                                                
                    Exécution du : Sat Apr 15 14:55:44 2017                     
                        Nom de la machine : 39cfa653e5f4                        
                              Architecture : 64bit                              
                          Type de processeur : x86_64                           
          Système d'exploitation : Linux debian 8.7  4.4.0-64-generic           
                        Langue des messages : en (UTF-8)                        
                                                                                
                           Version de Python : 2.7.10                           
                            Version de NumPy : 1.9.2                            
                           Parallélisme MPI : inactif                           
                          Parallélisme OpenMP : actif                           
                        Nombre de processus utilisés : 1                        
                     Version de la librairie HDF5 : 1.8.14                      
                      Version de la librairie MED : 3.2.0                       
                     Version de la librairie MFront : 2.0.2                     
                     Version de la librairie MUMPS : 4.10.0                     
                        Librairie PETSc : non disponible                        
                    Version de la librairie SCOTCH : 5.1.10                     

                  Mémoire limite pour l'exécution : 862.00 Mo                   
                   consommée par l'initialisation : 365.78 Mo                   
                  par les objets du jeu de commandes : 3.39 Mo                  
                 reste pour l'allocation dynamique : 492.84 Mo                  
                Taille limite des fichiers d'échange : 12.00 Go                 
                                                                                

  # ------------------------------------------------------------------------------------------
  # Commande No :  0001            Concept de type : -
  # ------------------------------------------------------------------------------------------
  DEBUT(INFO=1,
        PAR_LOT='OUI',
        IMPR_MACRO='NON',
        MEMOIRE=_F(TAILLE_BLOC=800.0,
                   TAILLE_GROUP_ELEM=1000,),
        RESERVE_CPU=_F(BORNE=900,),
        MESURE_TEMPS=_F(MOYENNE='NON',
                        NIVE_DETAIL=1,),
        )



  Valeur initiale du temps CPU maximum =   600 secondes
  Valeur du temps CPU maximum passé aux commandes =   540 secondes
  Réserve CPU prévue = 60 secondes

  Ouverture en écriture du fichier ./glob.1

  Ouverture en écriture du fichier ./vola.1

  Ouverture en lecture du fichier /opt/salome/V2016/tools/Code_aster_stable-1260/lib/aster/elem.1

     Nom de la base                          :  ELEMBASE
     Créée avec la version                   :  12.06.00
     Nombre d'enregistrements utilisés       :  30
     Nombre d'enregistrements maximum        :  512
     Longueur d'enregistrement (octets)      :  819200
     Nombre d'identificateurs utilisés       :  123
     Taille maximum du répertoire            :  300
     Pourcentage d'utilisation du répertoire :  41 %

  Ouverture en lecture du fichier /opt/salome/V2016/tools/Code_aster_stable-1260/lib/aster/elem.1


     Nom de la base                          :  ELEMBASE
     Nombre d'enregistrements utilisés       :  30
     Nombre d'enregistrements maximum        :  512
     Longueur d'enregistrement (octets)      :  819200
     Nombre total d'accès en lecture         :  52
     Volume des accès en lecture             :         40.62 Mo.
     Nombre total d'accès en écriture        :  0
     Volume des accès en écriture            :          0.00 Mo.
     Nombre d'identificateurs utilisés       :  123
     Taille maximum du répertoire            :  300
     Pourcentage d'utilisation du répertoire :  41 %

  Relecture des catalogues des éléments faite.

  Fin de lecture (durée  0.020000  s.) 
  # Mémoire (Mo) :   405.16 /   399.68 /    35.93 /    19.37 (VmPeak / VmSize / Optimum / Minimum)
  # Fin commande No : 0001   user+syst:        0.05s (syst:        0.03s, elaps:        0.07s)
  # ------------------------------------------------------------------------------------------

  # ------------------------------------------------------------------------------------------
  # Commande No :  0002            Concept de type : mater_sdaster
  # ------------------------------------------------------------------------------------------
  MA = DEFI_MATERIAU(ELAS=_F(E=2.10000000000E11,
                             NU=0.3,),
                     INFO=1,)


 MATERIAU : MA      
 RELATION DE COMPORTEMENT: ELAS                            


  # Mémoire (Mo) :   405.16 /   400.37 /    35.93 /    19.37 (VmPeak / VmSize / Optimum / Minimum)
  # Fin commande No : 0002   user+syst:        0.00s (syst:        0.00s, elaps:        0.00s)
  # ------------------------------------------------------------------------------------------

  # ------------------------------------------------------------------------------------------
  # Commande No :  0003            Concept de type : maillage_sdaster
  # ------------------------------------------------------------------------------------------
  MAIL = LIRE_MAILLAGE(FORMAT='MED',
                       INFO_MED=1,
                       INFO=1,
                       UNITE=20,
                       VERI_MAIL=_F(APLAT=1.E-3,
                                    VERIF='OUI',),
                       )

  ====== VERIFICATION DU MAILLAGE ======
 

------------ MAILLAGE MAIL     - IMPRESSIONS NIVEAU  1 ------------

MED file generated by Gmsh                                                      

NOMBRE DE NOEUDS                         106

NOMBRE DE MAILLES                        456
                              TRIA3                 208
                              TETRA4                248

NOMBRE DE GROUPES DE MAILLES               4
                              group204                           184
                              group16                             12
                              group255                            12
                              wholeVoolume                       248

--------------------------------------------------------------------------------

  # Mémoire (Mo) :   405.16 /   400.41 /    35.93 /    19.37 (VmPeak / VmSize / Optimum / Minimum)
  # Fin commande No : 0003   user+syst:        0.02s (syst:        0.01s, elaps:        0.02s)
  # ------------------------------------------------------------------------------------------

  # ------------------------------------------------------------------------------------------
  # Commande No :  0004            Concept de type : maillage_sdaster
  # ------------------------------------------------------------------------------------------
  MAIL = MODI_MAILLAGE(reuse=MAIL,
                       MAILLAGE=MAIL,
                       ORIE_PEAU_3D=_F(GROUP_MA=('group16', ),),
                       INFO=1,)

TRAITEMENT DU GROUP_MA: group16                  DE      12 MAILLES
                             12 MAILLE(S) ONT ETE ORIENTEE(S)
AU TOTAL      12 MAILLE(S) ORIENTEE(S) 
  # Mémoire (Mo) :   405.16 /   400.41 /    35.93 /    19.37 (VmPeak / VmSize / Optimum / Minimum)
  # Fin commande No : 0004   user+syst:        0.00s (syst:        0.00s, elaps:        0.00s)
  # ------------------------------------------------------------------------------------------

  # ------------------------------------------------------------------------------------------
  # Commande No :  0005            Concept de type : modele_sdaster
  # ------------------------------------------------------------------------------------------
  MODE = AFFE_MODELE(MAILLAGE=MAIL,
                     AFFE=_F(PHENOMENE='MECANIQUE',
                             TOUT='OUI',
                             MODELISATION=('3D', ),),
                     INFO=1,
                     VERI_JACOBIEN='OUI',
                     PARTITION=_F(PARALLELISME='GROUP_ELEM',),
                     )


Sur les 456 mailles du maillage MAIL, on a demandé l'affectation de 456, on a pu en affecter 456
 Modélisation     Type maille  Élément fini     Nombre
                  TRIA3        MECA_FACE3       208
 3D               TETRA4       MECA_TETRA4      248
#2      Calculs elementaires et assemblages               CPU (USER+SYST/SYST/ELAPS):      0.00      0.00      0.00
  # Mémoire (Mo) :   407.55 /   407.55 /    35.93 /    28.44 (VmPeak / VmSize / Optimum / Minimum)
  # Fin commande No : 0005   user+syst:        0.01s (syst:        0.00s, elaps:        0.01s)
  # ------------------------------------------------------------------------------------------

  # ------------------------------------------------------------------------------------------
  # Commande No :  0006            Concept de type : cham_mater
  # ------------------------------------------------------------------------------------------
  MATE = AFFE_MATERIAU(MAILLAGE=MAIL,
                       AFFE=_F(MATER=(MA, ),
                               TOUT='OUI',),
                       INFO=1,
                       )

  # Mémoire (Mo) :   407.55 /   407.55 /    35.93 /    28.44 (VmPeak / VmSize / Optimum / Minimum)
  # Fin commande No : 0006   user+syst:        0.01s (syst:        0.00s, elaps:        0.00s)
  # ------------------------------------------------------------------------------------------

  # ------------------------------------------------------------------------------------------
  # Commande No :  0007            Concept de type : char_meca
  # ------------------------------------------------------------------------------------------
  CHAR = AFFE_CHAR_MECA(MODELE=MODE,
                        DDL_IMPO=_F(GROUP_MA=('group16', ),
                                    DZ=0.0,
                                    DX=0.0,
                                    DY=0.0,),
                        FORCE_FACE=_F(FY=1200000000,
                                      GROUP_MA=('group255', ),),
                        INFO=1,
                        VERI_NORM='OUI',)

  # Mémoire (Mo) :   407.62 /   407.55 /    35.93 /    28.44 (VmPeak / VmSize / Optimum / Minimum)
  # Fin commande No : 0007   user+syst:        0.00s (syst:        0.00s, elaps:        0.00s)
  # ------------------------------------------------------------------------------------------

  # ------------------------------------------------------------------------------------------
  # Commande No :  0008            Concept de type : evol_elas
  # ------------------------------------------------------------------------------------------
  RESU = MECA_STATIQUE(MODELE=MODE,
                       CHAM_MATER=MATE,
                       EXCIT=_F(CHARGE=CHAR,
                                TYPE_CHARGE='FIXE',),
                       INFO=1,
                       INST=0.0,
                       OPTION='SIEF_ELGA',
                       SOLVEUR=_F(RENUM='METIS',
                                  STOP_SINGULIER='OUI',
                                  ELIM_LAGR='NON',
                                  NPREC=8,
                                  METHODE='MULT_FRONT',),
                       )


Le système linéaire à résoudre a 384 degrés de liberté:
   - 318 sont des degrés de liberté physiques
     (ils sont portés par 106 noeuds du maillage)
   - 66 sont les couples de paramètres de Lagrange associés
     aux 33 relations linéaires dualisées.

La matrice est de taille 384 équations.
Elle contient 5046 termes non nuls si elle est symétrique et 9708 termes non nuls si elle n'est pas symétrique (le nombre de termes
non nuls est susceptible de varier si l'on utilise le contact en formulation continue ou la méthode XFEM avec contact).
Soit un taux de remplissage de   6.584 %.
   CHAMP STOCKE :             DEPL INSTANT :  0.00000E+00  NUMERO D'ORDRE :     1
#1      Resolution des systemes lineaires                 CPU (USER+SYST/SYST/ELAPS):      0.00      0.00      0.01
#2      Calculs elementaires et assemblages               CPU (USER+SYST/SYST/ELAPS):      0.01      0.00      0.01
  # Mémoire (Mo) :   409.37 /   408.02 /    35.93 /    28.59 (VmPeak / VmSize / Optimum / Minimum)
  # Fin commande No : 0008   user+syst:        0.03s (syst:        0.00s, elaps:        0.03s)
  # ------------------------------------------------------------------------------------------

  # ------------------------------------------------------------------------------------------
  # Commande No :  0009            Concept de type : evol_elas
  # ------------------------------------------------------------------------------------------
  RESU = CALC_CHAMP(reuse=RESU,
                    RESULTAT=RESU,
                    PRECISION=1.E-06,
                    CRITERES=('SIEQ_ELNO', 'SIEQ_NOEU'),
                    CONTRAINTE=('SIGM_ELNO', 'SIGM_NOEU'),
                    INFO=1,
                    CRITERE='RELATIF',)

#2      Calculs elementaires et assemblages               CPU (USER+SYST/SYST/ELAPS):      0.00      0.00      0.00
  # Mémoire (Mo) :   409.37 /   408.15 /    35.93 /    28.80 (VmPeak / VmSize / Optimum / Minimum)
  # Fin commande No : 0009   user+syst:        0.02s (syst:        0.00s, elaps:        0.02s)
  # ------------------------------------------------------------------------------------------

  # ------------------------------------------------------------------------------------------
  # Commande No :  0010            Concept de type : -
  # ------------------------------------------------------------------------------------------
  IMPR_RESU(FORMAT='MED',
            RESU=_F(RESULTAT=RESU,
                    INFO_MAILLAGE='NON',
                    IMPR_NOM_VARI='NON',
                    NOM_CHAM=('SIGM_NOEU', 'SIEQ_NOEU', 'DEPL'),
                    ),
            UNITE=80,
            INFO=1,)

  # Mémoire (Mo) :   409.37 /   408.29 /    35.93 /    28.80 (VmPeak / VmSize / Optimum / Minimum)
  # Fin commande No : 0010   user+syst:        0.01s (syst:        0.00s, elaps:        0.01s)
  # ------------------------------------------------------------------------------------------

  # ------------------------------------------------------------------------------------------
  # Commande No :  0011            Concept de type : -
  # ------------------------------------------------------------------------------------------
  FIN(RETASSAGE='NON',
      INFO_RESU='OUI',
      FORMAT_HDF='NON',
      UNITE=6,
      )

   
   !-------------------------------------------------------------------------!
   ! <I> <CATAMESS_89>                                                       !
   !                                                                         !
   !     Liste des alarmes émises lors de l'exécution du calcul.             !
   !                                                                         !
   !     Les alarmes que vous avez choisies d'ignorer sont précédées de (*). !
   !     Nombre d'occurrences pour chacune des alarmes :                     !
   !            aucune alarme                                                !
   !-------------------------------------------------------------------------!
   

 ======>

 STRUCTURE DU CONCEPT RESU     CALCULE POUR 1 NUMERO D'ORDRE

 LISTE DES NOMS SYMBOLIQUES:
 ! ---------- !----------------!----------------!----------------!----------------!----------------!----------------!
 ! NUME_ORDRE !      DEPL      !   SIEF_ELGA    !   SIGM_ELNO    !   SIGM_NOEU    !   SIEQ_ELNO    !   SIEQ_NOEU    !
 ! ---------- !----------------!----------------!----------------!----------------!----------------!----------------!
 !          1 !     DEPL_R     !     SIEF_R     !     SIEF_R     !     SIEF_R     !     SIEF_R     !     SIEF_R     !
 ! ---------- !----------------!----------------!----------------!----------------!----------------!----------------!

 LISTE DES NOMS DE VARIABLES D'ACCES:
                                      INST             DE TYPE  R

 LISTE DES NOMS DE PARAMETRES:
 ! ---------- !----------------!----------------!----------------!----------------!----------------!----------------!----------------!----------------!
 ! NUME_ORDRE !    CARAELEM    !    CHAMPMAT    !     EXCIT      !   ITER_GCPC    !    METHODE     !     MODELE     !     RENUM      !    STOCKAGE    !
 ! ---------- !----------------!----------------!----------------!----------------!----------------!----------------!----------------!----------------!
 !          1 !       K8       !       K8       !      K24       !       I        !      K16       !       K8       !      K16       !      K16       !
 ! ---------- !----------------!----------------!----------------!----------------!----------------!----------------!----------------!----------------!
 ---------------------------------------------------------------------------
 Concepts de la base: G
    Nom       Type                 Taille (Mo)         Nombre      Nombre de
                                                     d'objets       segments
    TOTAL                                21.55            163            289
  
    MA         MATER_SDASTER              0.00              4              4
    MAIL       MAILLAGE_SDASTER           0.05             33             50
    MODE       MODELE_SDASTER             0.02              8             13
    MATE       CHAM_MATER                 0.00              5             10
    CHAR       CHAR_MECA                  0.02             24             49
    RESU       EVOL_ELAS                  0.33             44             57
    &FOZERO                               0.00              2              2
    &&_NUM_C                              0.00              1              1
    &CATA.AC                              0.00              2              4
    &CATA.CL                              0.28              1              3
    &CATA.GD                              0.07              4             11
    &CATA.ME                              0.15              2              4
    &CATA.OP                              0.31              4             19
    &CATA.PH                              0.00              1              1
    &CATA.PR                              0.00              2              4
    &CATA.TE                             20.29             17             42
    &CATA.TH                              0.01              2              4
    &CATA.TM                              0.02              7             11
 ---------------------------------------------------------------------------


     Nom de la base                          :  GLOBALE
     Nombre d'enregistrements utilisés       :  33
     Nombre d'enregistrements maximum        :  62914
     Longueur d'enregistrement (octets)      :  819200
     Nombre total d'accès en lecture         :  7
     Volume des accès en lecture             :          5.47 Mo.
     Nombre total d'accès en écriture        :  47
     Volume des accès en écriture            :         36.72 Mo.
     Nombre d'identificateurs utilisés       :  304
     Taille maximum du répertoire            :  2000
     Pourcentage d'utilisation du répertoire :  15 %


     Nom de la base                          :  VOLATILE
     Nombre d'enregistrements utilisés       :  3
     Nombre d'enregistrements maximum        :  62914
     Longueur d'enregistrement (octets)      :  819200
     Nombre total d'accès en lecture         :  0
     Volume des accès en lecture             :          0.00 Mo.
     Nombre total d'accès en écriture        :  4
     Volume des accès en écriture            :          3.12 Mo.
     Nombre d'identificateurs utilisés       :  649
     Taille maximum du répertoire            :  2000
     Pourcentage d'utilisation du répertoire :  32 %

 <FIN> Arrêt normal dans "FIN".

 La mémoire demandée au lancement est surestimée, elle est de 862.00 Mo.
 Le pic mémoire utilisée est de 409.37 Mo.



     Nom de la base                          :  ELEMBASE
     Nombre d'enregistrements utilisés       :  30
     Nombre d'enregistrements maximum        :  512
     Longueur d'enregistrement (octets)      :  819200
     Nombre total d'accès en lecture         :  52
     Volume des accès en lecture             :         40.62 Mo.
     Nombre total d'accès en écriture        :  0
     Volume des accès en écriture            :          0.00 Mo.
     Nombre d'identificateurs utilisés       :  123
     Taille maximum du répertoire            :  300
     Pourcentage d'utilisation du répertoire :  41 %
  
 <I>       FERMETURE DES BASES EFFECTUEE
  
   STATISTIQUES CONCERNANT L'ALLOCATION DYNAMIQUE :
     TAILLE CUMULEE MAXIMUM            :                    36  Mo.
     TAILLE CUMULEE LIBEREE            :                     5  Mo.
     NOMBRE TOTAL D'ALLOCATIONS        :                  5255
     NOMBRE TOTAL DE LIBERATIONS       :                  5235
     APPELS AU MECANISME DE LIBERATION :                     0
     TAILLE MEMOIRE CUMULEE RECUPEREE  :                     0  Mo.
     VOLUME DES LECTURES               :                     0  Mo.
     VOLUME DES ECRITURES              :                     0  Mo.
  
   MEMOIRE JEVEUX MINIMALE REQUISE POUR L'EXECUTION :      28.80 Mo
     - IMPOSE DE NOMBREUX ACCES DISQUE
     - RALENTIT LA VITESSE D'EXECUTION
   MEMOIRE JEVEUX OPTIMALE REQUISE POUR L'EXECUTION :      35.93 Mo
     - LIMITE LES ACCES DISQUE
     - AMELIORE LA VITESSE D'EXECUTION
   MAXIMUM DE MEMOIRE UTILISEE PAR LE PROCESSUS     :     409.37 Mo
     - COMPREND LA MEMOIRE CONSOMMEE PAR  JEVEUX, 
       LE SUPERVISEUR PYTHON, LES LIBRAIRIES EXTERNES
  
 <I>       FIN D'EXECUTION LE : SA-15-AVRI-2017 14:55:44


  <I> Informations sur les temps d'exécution
      Temps cpu total                         0.64 s
      Temps cpu user total                    0.52 s
      Temps cpu systeme total                 0.12 s
      Temps cpu restant                     539.36 s


  La signature de la base sauvegardée est (à l'adresse 0) :
    bd5852bf1825725cbb2564ed164d19bdde0b2f0b

 ********************************************************************************
 * COMMAND                  :       USER :     SYSTEM :   USER+SYS :    ELAPSED *
 ********************************************************************************
 * init (jdc)               :       0.37 :       0.06 :       0.43 :       0.42 *
 *  . compile               :       0.00 :       0.00 :       0.00 :       0.00 *
 *  . exec_compile          :       0.05 :       0.02 :       0.07 :       0.07 *
 *  . report                :       0.01 :       0.00 :       0.01 :       0.01 *
 *  . build                 :       0.00 :       0.00 :       0.00 :       0.00 *
 * DEBUT                    :       0.02 :       0.03 :       0.05 :       0.07 *
 * DEFI_MATERIAU            :       0.00 :       0.00 :       0.00 :       0.00 *
 * LIRE_MAILLAGE            :       0.01 :       0.01 :       0.02 :       0.02 *
 * MODI_MAILLAGE            :       0.00 :       0.00 :       0.00 :       0.00 *
 * AFFE_MODELE              :       0.01 :       0.00 :       0.01 :       0.01 *
 * AFFE_MATERIAU            :       0.01 :       0.00 :       0.01 :       0.00 *
 * AFFE_CHAR_MECA           :       0.00 :       0.00 :       0.00 :       0.00 *
 * MECA_STATIQUE            :       0.03 :       0.00 :       0.03 :       0.03 *
 * CALC_CHAMP               :       0.02 :       0.00 :       0.02 :       0.02 *
 * IMPR_RESU                :       0.01 :       0.00 :       0.01 :       0.01 *
 * FIN                      :       0.02 :       0.02 :       0.04 :       0.04 *
 *  . part Superviseur      :       0.42 :       0.09 :       0.51 :       0.51 *
 *  . part Fortran          :       0.10 :       0.03 :       0.13 :       0.13 *
 ********************************************************************************
 * TOTAL_JOB                :       0.52 :       0.12 :       0.64 :       0.64 *
 ********************************************************************************

EXECUTION_CODE_ASTER_EXIT_22=0
