                                                                                
                                                                                
              -- CODE_ASTER -- VERSION : EXPLOITATION (stable) --               
                                                                                
                     Version 12.6.0 modifiée le 16/06/2016                      
                     révision 77d3379d51e8 - branche 'v12'                      
                         Copyright EDF R&D 1991 - 2017                          
                                                                                
                    Exécution du : Sat Apr 15 14:55:44 2017                     
                        Nom de la machine : 39cfa653e5f4                        
                              Architecture : 64bit                              
                          Type de processeur : x86_64                           
          Système d'exploitation : Linux debian 8.7  4.4.0-64-generic           
                        Langue des messages : en (UTF-8)                        
                                                                                
                           Version de Python : 2.7.10                           
                            Version de NumPy : 1.9.2                            
                           Parallélisme MPI : inactif                           
                          Parallélisme OpenMP : actif                           
                        Nombre de processus utilisés : 1                        
                     Version de la librairie HDF5 : 1.8.14                      
                      Version de la librairie MED : 3.2.0                       
                     Version de la librairie MFront : 2.0.2                     
                     Version de la librairie MUMPS : 4.10.0                     
                        Librairie PETSc : non disponible                        
                    Version de la librairie SCOTCH : 5.1.10                     
                  Mémoire limite pour l'exécution : 862.00 Mo                   
                   consommée par l'initialisation : 365.78 Mo                   
                  par les objets du jeu de commandes : 3.39 Mo                  
                 reste pour l'allocation dynamique : 492.84 Mo                  
                Taille limite des fichiers d'échange : 12.00 Go                 
                                                                                
 <I> <FIN> FERMETURE DE LA BASE "GLOBALE" EFFECTUEE.

 <FIN> Arrêt normal dans "FIN".
 <I> <FIN> ARRET NORMAL DANS "FIN" PAR APPEL A "JEFINI".
  
 <I> <FIN> MEMOIRE JEVEUX MINIMALE REQUISE POUR L'EXECUTION :                      28.80 Mo
 <I> <FIN> MEMOIRE JEVEUX OPTIMALE REQUISE POUR L'EXECUTION :                      35.93 Mo
 <I> <FIN> MAXIMUM DE MEMOIRE UTILISEE PAR LE PROCESSUS LORS DE L'EXECUTION :     409.37 Mo

 ********************************************************************************
 * COMMAND                  :       USER :     SYSTEM :   USER+SYS :    ELAPSED *
 ********************************************************************************
 * init (jdc)               :       0.37 :       0.06 :       0.43 :       0.42 *
 *  . compile               :       0.00 :       0.00 :       0.00 :       0.00 *
 *  . exec_compile          :       0.05 :       0.02 :       0.07 :       0.07 *
 *  . report                :       0.01 :       0.00 :       0.01 :       0.01 *
 *  . build                 :       0.00 :       0.00 :       0.00 :       0.00 *
 * DEBUT                    :       0.02 :       0.03 :       0.05 :       0.07 *
 * DEFI_MATERIAU            :       0.00 :       0.00 :       0.00 :       0.00 *
 * LIRE_MAILLAGE            :       0.01 :       0.01 :       0.02 :       0.02 *
 * MODI_MAILLAGE            :       0.00 :       0.00 :       0.00 :       0.00 *
 * AFFE_MODELE              :       0.01 :       0.00 :       0.01 :       0.01 *
 * AFFE_MATERIAU            :       0.01 :       0.00 :       0.01 :       0.00 *
 * AFFE_CHAR_MECA           :       0.00 :       0.00 :       0.00 :       0.00 *
 * MECA_STATIQUE            :       0.03 :       0.00 :       0.03 :       0.03 *
 * CALC_CHAMP               :       0.02 :       0.00 :       0.02 :       0.02 *
 * IMPR_RESU                :       0.01 :       0.00 :       0.01 :       0.01 *
 * FIN                      :       0.02 :       0.02 :       0.04 :       0.04 *
 *  . part Superviseur      :       0.42 :       0.09 :       0.51 :       0.51 *
 *  . part Fortran          :       0.10 :       0.03 :       0.13 :       0.13 *
 ********************************************************************************
 * TOTAL_JOB                :       0.52 :       0.12 :       0.64 :       0.64 *
 ********************************************************************************

